LTspice 24.0.9 for Windows
Circuit: * C:\Users\bismi\OneDrive\Documents\LTspice\SPICEV2\RefAmp197.asc
Start Time: Tue Mar  4 13:36:53 2025
solver = Normal
Maximum thread count: 16
tnom = 27
temp = 27
method = modified trap
Direct Newton iteration for .op point succeeded.
Total elapsed time: 0.120 seconds.

