Circuit: * C:\Users\hibin\Documents\SPICE\RefAmp.asc

Direct Newton iteration for .op point succeeded.

Date: Mon Feb 24 02:10:35 2025
Total elapsed time: 0.049 seconds.

tnom = 27
temp = 27
method = trap
totiter = 5
traniter = 0
tranpoints = 0
accept = 0
rejected = 0
matrix size = 120
fillins = 142
solver = Normal
Avg thread counts: 12.0/0.0/12.0/4.2
Matrix Compiler1:     788 opcodes
Matrix Compiler2: 12.46 KB object code size
