Circuit: * C:\Users\hibin\Documents\SPICE\Amplifier.asc

c4: Increased Cpar to 1.5e-09
c5: Increased Cpar to 1.5e-09
WARNING: Node N002 is floating.

Direct Newton iteration failed to find .op point.  (Use ".option noopiter" to skip.)
Starting Gmin stepping
Gmin = 10
Gmin = 1.07374
vernier = 0.5
vernier = 0.25
vernier = 0.125
vernier = 0.0625
vernier = 0.03125
Gmin = 1.00965
vernier = 0.015625
vernier = 0.0078125
vernier = 0.00390625
vernier = 0.00195312
vernier = 0.000976562
Gmin = 1.0018
vernier = 0.000488281
Gmin = 0
Gmin stepping failed

Starting source stepping with srcstepmethod=0
Source Step = 3.0303%
vernier = 0.25
Source Step = 1.70455%
Source Step = 3.59848%
Source Step = 5.49242%
Source Step = 7.38636%
Source Step = 9.2803%
vernier = 0.09375
Source Step = 10.7955%
Source Step = 11.5057%
Source Step = 12.2159%
Source Step = 12.9261%
Source Step = 13.6364%
vernier = 0.0351562
Source Step = 14.4531%
Source Step = 15.5185%
Source Step = 16.5838%
Source Step = 17.6491%
Source Step = 18.7145%
vernier = 0.0527344
Source Step = 19.8864%
Source Step = 21.4844%
Source Step = 23.0824%
Source Step = 24.6804%
Source Step = 26.2784%
vernier = 0.0791016
Source Step = 27.9563%
Source Step = 30.3533%
Source Step = 32.7504%
Source Step = 35.1474%
Source Step = 37.5444%
Source Step = 39.9414%
vernier = 0.118652
Source Step = 43.5369%
Source Step = 47.1325%
Source Step = 50.728%
Source Step = 51.8066%
Source Step = 52.7055%
Source Step = 53.6044%
Source Step = 54.5033%
Source Step = 55.4022%
vernier = 0.0444946
Source Step = 56.6157%
Source Step = 57.964%
Source Step = 59.3123%
Source Step = 60.6606%
Source Step = 62.0089%
vernier = 0.0667419
Source Step = 63.7618%
Source Step = 65.7842%
vernier = 0.0166855
Source Step = 66.0876%
Source Step = 66.5932%
Source Step = 66.6849%
Source Step = 66.7165%
Source Step = 66.7481%
Source Step = 66.7797%
Source Step = 66.8113%
Source Step = 66.8429%
vernier = 0.00156426
Source Step = 66.8903%
Source Step = 66.9377%
Source Step = 66.9851%
Source Step = 67.0325%
Source Step = 67.0799%
vernier = 0.0023464
Source Step = 67.1486%
Source Step = 67.2197%
Source Step = 67.2908%
Source Step = 67.3619%
Source Step = 67.433%
vernier = 0.00351959
Source Step = 67.5326%
Source Step = 67.6392%
Source Step = 67.7459%
Source Step = 67.8526%
Source Step = 67.9592%
vernier = 0.00527939
Source Step = 68.1032%
Source Step = 68.2632%
Source Step = 68.4232%
Source Step = 68.5831%
Source Step = 68.7431%
vernier = 0.00791909
Source Step = 68.9511%
Source Step = 69.1911%
Source Step = 69.431%
Source Step = 69.671%
Source Step = 69.911%
vernier = 0.0118786
Source Step = 70.2109%
Source Step = 70.5709%
Source Step = 70.9309%
Source Step = 71.2908%
Source Step = 71.6508%
vernier = 0.0178179
Source Step = 72.0827%
Source Step = 72.6227%
Source Step = 73.1626%
Source Step = 73.7025%
Source Step = 74.2425%
vernier = 0.0267269
Source Step = 74.8634%
Source Step = 75.6733%
Source Step = 76.4832%
Source Step = 77.2931%
Source Step = 78.103%
vernier = 0.0400904
Source Step = 78.9939%
Source Step = 80.2088%
Source Step = 81.4237%
Source Step = 82.6385%
Source Step = 83.8534%
vernier = 0.0601356
Source Step = 85.129%
Source Step = 86.9513%
Source Step = 88.7736%
Source Step = 90.5958%
Source Step = 92.4181%
Source Step = 94.2404%
vernier = 0.0902034
Source Step = 96.9739%
Source Step = 99.7073%
Source stepping succeeded in finding the operating point.


Date: Sun Mar  2 00:57:47 2025
Total elapsed time: 2.002 seconds.

tnom = 27
temp = 27
method = trap
totiter = 5615
traniter = 0
tranpoints = 0
accept = 0
rejected = 0
matrix size = 360
fillins = 1703
solver = Normal
Avg thread counts: 1.2/0.0/1.9/1.2
Matrix Compiler1:   11375 opcodes
Matrix Compiler2: 59.15 KB object code size  4.1/5.6/[3.0]

