LTspice 24.0.9 for Windows
Circuit: * C:\Users\bismi\OneDrive\Documents\LTspice\SPICE\Amplifier.asc
Start Time: Thu Feb 27 15:31:40 2025
solver = Normal
Maximum thread count: 16
tnom = 27
temp = 27
method = modified trap
Direct Newton iteration failed to find .op point.  (Use ".option noopiter" to skip.)
Starting Gmin stepping
Gmin = 10
Gmin = 1.07374
vernier = 0.5
vernier = 0.25
vernier = 0.125
vernier = 0.0625
vernier = 0.03125
Gmin = 1.00965
vernier = 0.015625
vernier = 0.0078125
vernier = 0.00390625
vernier = 0.00195312
vernier = 0.000976562
vernier = 0.000488281
Gmin = 1.00134
Gmin = 0
Gmin stepping failed

Starting source stepping with srcstepmethod=0
Source Step = 3.0303%
vernier = 0.25
Source Step = 1.70455%
Source Step = 3.59848%
Source Step = 5.49242%
Source Step = 7.38636%
Source Step = 9.2803%
vernier = 0.09375
Source Step = 10.7955%
Source Step = 11.5057%
Source Step = 12.2159%
Source Step = 12.9261%
Source Step = 13.6364%
vernier = 0.0351562
Source Step = 14.4531%
Source Step = 15.5185%
Source Step = 16.5838%
Source Step = 17.6491%
Source Step = 18.7145%
vernier = 0.0527344
Source Step = 19.8864%
Source Step = 21.4844%
Source Step = 23.0824%
Source Step = 24.6804%
Source Step = 26.2784%
vernier = 0.0791016
Source Step = 27.9563%
Source Step = 30.3533%
Source Step = 32.7504%
Source Step = 35.1474%
Source Step = 37.5444%
Source Step = 39.9414%
vernier = 0.118652
Source Step = 43.5369%
Source Step = 47.1325%
Source Step = 50.728%
Source Step = 50.9078%
Source Step = 51.1325%
Source Step = 51.3572%
Source Step = 51.5819%
Source Step = 51.8066%
vernier = 0.0111237
Source Step = 52.11%
Source Step = 52.4471%
Source Step = 52.7842%
Source Step = 53.1213%
Source Step = 53.4583%
vernier = 0.0166855
Source Step = 53.8965%
Source Step = 54.4022%
Source Step = 54.9078%
Source Step = 55.4134%
Source Step = 55.919%
vernier = 0.0250282
Source Step = 56.551%
Source Step = 57.3095%
Source Step = 58.0679%
Source Step = 58.8263%
Source Step = 59.5848%
vernier = 0.0375423
Source Step = 60.4949%
Source Step = 61.6325%
Source Step = 62.7702%
Source Step = 63.9078%
Source Step = 64.4553%
Source Step = 64.5264%
Source Step = 64.5975%
Source Step = 64.6686%
Source Step = 64.7397%
Source Step = 64.8108%
Source Step = 64.8819%
Source Step = 64.953%
vernier = 0.00351959
Source Step = 65.0419%
Source Step = 65.1486%
Source Step = 65.2552%
Source Step = 65.3619%
Source Step = 65.4685%
vernier = 0.00527939
Source Step = 65.5965%
Source Step = 65.7565%
Source Step = 65.9165%
Source Step = 66.0765%
Source Step = 66.2365%
vernier = 0.00791909
Source Step = 66.4204%
Source Step = 66.6604%
Source Step = 66.9004%
Source Step = 67.1403%
Source Step = 67.3803%
vernier = 0.0118786
Source Step = 67.6443%
Source Step = 68.0042%
Source Step = 68.3642%
Source Step = 68.7242%
Source Step = 69.0841%
vernier = 0.0178179
Source Step = 69.4621%
Source Step = 70.002%
Source Step = 70.542%
Source Step = 71.0819%
Source Step = 71.6218%
Source Step = 72.1618%
vernier = 0.0267269
Source Step = 72.9717%
Source Step = 73.7816%
Source Step = 74.5915%
Source Step = 75.4014%
Source Step = 76.2113%
vernier = 0.0400904
Source Step = 77.3857%
Source Step = 78.6005%
Source Step = 79.8154%
Source Step = 81.0302%
Source Step = 82.2451%
vernier = 0.0601356
Source Step = 83.9459%
Source Step = 85.7682%
Source Step = 87.5905%
Source Step = 89.4128%
Source Step = 91.2351%
vernier = 0.0150339
Source Step = 91.1553%
Source Step = 91.2066%
Source Step = 91.2351%
Source Step = 91.2635%
Source Step = 91.292%
Source Step = 91.3205%
vernier = 0.00140943
Source Step = 91.3561%
Source Step = 91.3988%
Source Step = 91.4415%
Source Step = 91.4842%
Source Step = 91.5269%
Source Step = 91.5696%
Source Step = 91.6123%
Source Step = 91.6551%
Source Step = 91.6978%
Source Step = 91.7405%
Source Step = 91.7832%
Source Step = 91.8259%
Source Step = 91.8686%
Source Step = 91.9113%
Source Step = 91.954%
Source Step = 91.9967%
Source Step = 92.0394%
Source Step = 92.0822%
Source Step = 92.1249%
Source Step = 92.1676%
Source Step = 92.2103%
Source Step = 92.253%
Source Step = 92.2957%
Source Step = 92.3384%
Source Step = 92.3811%
Source Step = 92.4238%
Source Step = 92.4665%
Source Step = 92.5093%
Source Step = 92.552%
Source Step = 92.5947%
Source Step = 92.6374%
Source Step = 92.6801%
Source Step = 92.7228%
Source Step = 92.7655%
Source Step = 92.8082%
Source Step = 92.8509%
Source Step = 92.8936%
Source Step = 92.9364%
Source Step = 92.9791%
Source Step = 93.0218%
Source Step = 93.0645%
Source Step = 93.1072%
Source Step = 93.1499%
vernier = 0.00211414
Source Step = 93.2097%
Source Step = 93.2738%
Source Step = 93.3378%
Source Step = 93.4019%
Source Step = 93.466%
Source Step = 93.53%
Source Step = 93.5941%
Source Step = 93.6581%
Source Step = 93.7222%
vernier = 0.00317121
Source Step = 93.7927%
Source Step = 93.8888%
Source Step = 93.9849%
Source Step = 94.081%
Source Step = 94.1771%
Source Step = 94.2732%
Source Step = 94.3693%
Source Step = 94.4654%
Source Step = 94.5615%
Source Step = 94.6576%
Source Step = 94.7537%
Source Step = 94.8498%
Source Step = 94.9459%
Source Step = 95.042%
vernier = 0.00475682
Source Step = 95.0744%
Source Step = 95.1104%
Source Step = 95.1465%
Source Step = 95.1825%
Source Step = 95.2185%
Source Step = 95.2546%
Source Step = 95.2906%
Source Step = 95.3266%
Source Step = 95.3627%
Source Step = 95.3987%
Source Step = 95.4347%
Source Step = 95.4708%
Source Step = 95.5068%
Source Step = 95.5429%
Source Step = 95.5789%
Source Step = 95.6149%
Source Step = 95.651%
Source Step = 95.687%
Source Step = 95.723%
Source Step = 95.7591%
Source Step = 95.7951%
vernier = 0.00178381
Source Step = 95.833%
Source Step = 95.887%
Source Step = 95.9411%
Source Step = 95.9951%
Source Step = 96.0492%
Source Step = 96.1032%
Source Step = 96.1573%
Source Step = 96.2113%
Source Step = 96.2654%
Source Step = 96.3194%
Source Step = 96.3735%
Source Step = 96.4276%
Source Step = 96.4816%
Source Step = 96.5357%
Source Step = 96.5897%
Source Step = 96.6438%
Source Step = 96.6978%
Source Step = 96.7519%
Source Step = 96.8059%
Source Step = 96.86%
Source Step = 96.914%
Source Step = 96.9681%
Source Step = 97.0222%
Source Step = 97.0762%
Source Step = 97.1303%
Source Step = 97.1843%
Source Step = 97.2384%
vernier = 0.00267571
Source Step = 97.2978%
Source Step = 97.3789%
Source Step = 97.46%
Source Step = 97.5411%
Source Step = 97.6222%
Source Step = 97.7032%
Source Step = 97.7843%
Source Step = 97.8654%
Source Step = 97.9465%
Source Step = 98.0276%
Source Step = 98.1087%
Source Step = 98.1897%
Source Step = 98.2708%
Source Step = 98.3519%
Source Step = 98.433%
Source Step = 98.5141%
Source Step = 98.5951%
Source Step = 98.6762%
Source Step = 98.7573%
Source Step = 98.8384%
Source Step = 98.9195%
Source Step = 99.0006%
Source Step = 99.0816%
Source Step = 99.1627%
Source Step = 99.2438%
Source Step = 99.3249%
Source Step = 99.406%
vernier = 0.00401357
Source Step = 99.5195%
Source Step = 99.6411%
Source Step = 99.7627%
Source Step = 99.8539%
Source Step = 99.8844%
Source Step = 99.9148%
Source Step = 99.9452%
Source Step = 99.9756%
Source Step = 100%
Source Step = 100%
Source stepping succeeded in finding the operating point.

Total elapsed time: 8.322 seconds.

